[General]

#network = Fulltest
#network = Hexagon

parallel-simulation = false
warnings = true
sim-time-limit = 600s


#cmdenv-module-messages = true # for normal (non-express) mode only
#**.cmdenv-log-level = true
#cmdenv-event-banners = true   # for normal (non-express) mode only

#tkenv-plugin-path = ../../../etc/plugins


*.configurator.dumpAddresses = true
*.configurator.dumpTopology = true
*.configurator.dumpLinks = true
*.configurator.dumpRoutes = true

# Visualizer settings
*.visualizer.interfaceTableVisualizer.displayInterfaceTables = false
*.visualizer.*.displayRoutes = true
*.visualizer.networkRouteVisualizer.fadeOutMode = "simulationTime"
#*.visualizer.networkRouteVisualizer.fadeOutMode = "simulationTime"
*.visualizer.networkRouteVisualizer.fadeOutTime = 1s
*.visualizer.networkRouteVisualizer.nodeFilter = "not (routerCore*)"

#*.visualizer.interfaceTableVisualizer.nodeFilter = "not (*switch* or *Switch* or *AP*)"


#
# Network specific settings
#


# OSPF

**.ospf.ospfConfig = xmldoc("ASConfig.xml")
**.ospf.helloInterval = 10s
**.ospf.retransmissionInterval = 5s
**.ospf.interfaceTransmissionDelay = 1s
**.ospf.routerDeadInterval = 40s
**.ospf.authentication.typename = "NullType"
**.ospf.authenticationKey = "0x00"


****coreRouter*.**hasDmpr = true

# set inet_addr, Mask, MTU ( = 1500), default route (=router)
#**.client.routingFile = "client.mrt"
#**.router.routingFile = "router.mrt"
#**.server.routingFile = "server.mrt"

# ip settings
**.ip.procDelay = 0s
**.IPForward = false

# hookType settings
#**.eth[*].numOutputHooks = 1
#**.eth[*].outputHook[0].typename = "OrdinalBasedDropper" # Nop | ThruputMeter | OrdinalBasedDropper | OrdinalBasedDuplicator

# ARP settings
**.arp.retryTimeout = 1s
**.arp.retryCount = 3
**.arp.cacheTimeout = 100s


**.tcp.delayedAcksEnabled = false                    # delayed ACK algorithm (RFC 1122) enabled/disabled
**.tcp.nagleEnabled = false                           # Nagle's algorithm (RFC 896) enabled/disabled
**.tcp.limitedTransmitEnabled = false                # Limited Transmit algorithm (RFC 3042) enabled/disabled (can be used for TCPReno/TCPTahoe/TCPNewReno/TCPNoCongestionControl)
**.tcp.increasedIWEnabled = false                    # Increased Initial Window (RFC 3390) enabled/disabled
**.tcp.sackSupport = false                            # Selective Acknowledgment (RFC 2018, 2883, 3517) support (header option) (SACK will be enabled for a connection if both endpoints support it)
**.tcp.windowScalingSupport = true                  # Window Scale (RFC 1323) support (header option) (WS will be enabled for a connection if both endpoints support it)
**.tcp.timestampSupport = false                      # Timestamps (RFC 1323) support (header option) (TS will be enabled for a connection if both endpoints support it)
**.tcp.tcpAlgorithmClass = "TcpReno"                 # TCPReno/TCPTahoe/TCPNewReno/TCPNoCongestionControl/DumbTCP
**.tcp.advertisedWindow = 5000000
**.tcp.recordStats = true
**.tcp.mss = 1460

**.tcp.ecnEnabled = true





# Queue setting


**.routerCore*.eth[*].queue.typename       = "RedMarkerQueue"
**.routerCore*.eth[*].queue.red.wq         = 0.002 #0.8
**.routerCore*.eth[*].queue.red.minths     = "5"
**.routerCore*.eth[*].queue.red.maxths     = "15"
**.routerCore*.eth[*].queue.red.maxps      = "1.0"
**.routerCore*.eth[0].queue.red.pkrates    = "8333.3333"
**.routerCore*.eth[*].queue.red.pkrates    = "833.3333"
**.routerCore*.eth[*].queue.red.marks 	   = "1"
**.routerCore*.eth[*].queue.red.recStart   = 0
**.routerCore*.eth[*].queueframeCapacity   = 500

[Config Hexagon]
network = Hexagon
**.ospf.ospfConfig = xmldoc("ASConfigHexagon.xml")

[Config Fulltest]
network = Fulltest
**.ospf.ospfConfig = xmldoc("ASConfig.xml")

[Config hasDmpr]

**.hasDmpr = ${hasDmpr = true, false}




[Config ECN-Test]
extends =  Fulltest

#network = Fulltest
**.tcp.ecnEnabled = true

**.client101.numApps = 1
**.client199.numApps = 1

**.client101.app[0].typename = "TcpSessionApp"
**.client101.app[0].active = true
**.client101.app[0].localPort = -1
**.client101.app[0].sendBytes = 100MiB
**.client101.app[0].sendScript = ""
**.client101.app[0].tClose = -1s
**.client101.app[0].connectPort = 1000
**.client101.app[0].connectAddress = "client199"

**.client101.app[0].tOpen = 20s


**.client199.app[0].typename = "TcpSinkApp"
**.client199.app[0].localPort = 1000



[Config SingleConn]
#network = Fulltest


**.client101.numApps = 1
**.client499.numApps = 1

**.client101.app[0].typename = "TcpSessionApp"
**.client101.app[0].active = true
**.client101.app[0].localPort = -1
**.client101.app[0].sendBytes = 100MiB
**.client101.app[0].sendScript = ""
**.client101.app[0].tClose = -1s
**.client101.app[0].connectPort = 1000
**.client101.app[0].connectAddress = "client499"

**.client101.app[0].tOpen = 20s


**.client499.app[0].typename = "TcpSinkApp"
**.client499.app[0].localPort = 1000

#**.client499.**tcp.tcpAlgorithmClass= ${TCP="TcpReno", "TcpTahoe", "TcpNewReno", "TcpNoCongestionControl", "DumbTcp", "TcpVegas", "TcpWestwood"}




[Config TwoConn]
#network = Fulltest



**.client101.numApps = 1
**.client199.numApps = 1
**.client499.numApps = 2

**.client1*.app[0].typename = "TcpSessionApp"
**.client1*.app[0].active = true
**.client1*.app[0].localPort = -1
**.client1*.app[0].sendBytes = 100MiB
**.client1*.app[0].sendScript = ""
**.client1*.app[0].tClose = -1s
**.client101.app[0].connectPort = 1000
**.client199.app[0].connectPort = 1001
**.client101.app[0].connectAddress = "client499"
**.client199.app[0].connectAddress = "client401"



**.client101.app[0].tOpen = 20s
**.client199.app[0].tOpen = 20s


**.client499.app[0].typename = "TcpSinkApp"
**.client499.app[0].localPort = 1000

**.client499.app[1].typename = "TcpSinkApp"
**.client499.app[1].localPort = 1001


[Config Conn]
#connections definitions

**.client101.numApps = 1
**.client199.numApps = ${default, 1 ! conn}
**.client499.numApps = ${conn= 1, 2}

**.client101.app[0].typename = "TcpSessionApp"
**.client101.app[0].active = true
**.client101.app[0].localPort = -1
**.client101.app[0].sendBytes = 100MiB
**.client101.app[0].sendScript = ""
**.client101.app[0].tClose = -1s
**.client101.app[0].connectPort = 1000
**.client101.app[0].connectAddress = "client499"

**.client199.app[0].typename = "TcpSessionApp"
#**.client199.app[0].active = ${default, true ! conn}
#**.client199.app[0].localPort = ${default, -1 ! conn}
**.client199.app[0].sendBytes = 100MiB 
#**.client199.app[0].sendScript = ${default,"" ! conn}
**.client199.app[0].tClose = -1s 


**.client199.app[0].connectPort = 1001
**.client199.app[0].connectAddress = "client401"



**.client101.app[0].tOpen = 20s
**.client199.app[0].tOpen = 20s 


**.client499.app[0].typename = "TcpSinkApp"
**.client499.app[0].localPort = 1000

**.client499.app[1].typename = "TcpSinkApp"
**.client499.app[1].localPort = 1001


[Config CrossTraffic]

**.cross = ${cross = "On", "Off"}

**.client601.numApps = ${1, default !cross}
**.client599.numApps = ${1, default !cross}

#**.client601.app[0].typename = ${"TcpSessionApp", default !cross}
**.client601.app[0].typename = "TcpSessionApp"
#**.client601.app[0].active = ${true, default !cross}
#**.client601.app[0].localPort = ${-1, default !cross}
#**.client601.app[0].sendBytes = ${2MiB, default !cross}
**.client601.app[0].sendBytes = 100MiB
#**.client601.app[0].sendScript = ${"", default !cross}
**.client601.app[0].tClose = -1s
**.client601.app[0].connectPort = 1000
**.client601.app[0].connectAddress = "client599"

**.client601.app[0].tOpen = 20s


**.client599.app[0].typename = "TcpSinkApp"
**.client599.app[0].localPort = 1000


[Config DUPTHRESH]
# Evaluating DUPTHRESH effect on duplicateAcks, throughput and overall performance.

**.dupthresh = ${DUPTHRESH=3, 5, 10, 15, 20, 30, 50, 100, 200}

[Config SingleConnDupthresh]
extends = SingleConn, DUPTHRESH 

[Config RED]



[Config ConnHex]
extends = Hexagon, DUPTHRESH, hasDmpr, Conn, CrossTraffic 


[Config ConnFull]
extends = Fulltest, DUPTHRESH, hasDmpr, Conn, CrossTraffic 


[Config SingleConnHex]

extends = SingleConn, Hexagon, hasDmpr


[Config SingleConnFull]

extends = SingleConn, Fulltest, hasDmpr



[Config TwoConnHex]
extends = TwoConn, Hexagon, hasDmpr

[Config TwoConnFull]
extends = TwoConn, Fulltest, hasDmpr


[Config SingleConnCrossHex]

extends = SingleConn, Hexagon, CrossTraffic, hasDmpr


[Config SingleConnCrossFull]

extends = SingleConn, Fulltest,  CrossTraffic, hasDmpr



[Config TwoConnCrossHex]
extends = TwoConn, Hexagon, CrossTraffic, hasDmpr

[Config TwoConnCrossFull]
extends = TwoConn, Fulltest, CrossTraffic hasDmpr




[Config SingleConnOspf]

extends = SingleConn
**.hasDmpr = false



[Config Step1]
network = Fulltest
sim-time-limit = 150s

# result-dir = /run/media/peymant/My Passport/Peyman/ECNNUM-results


**.client*.tcp.ldatarate = 1Gbps
**.client*.tcp.param1 = 1.2 #1.5
**.client*.tcp.param2 = 10 #10 for 200 mss, 2 for 1460 mss	
**.client*.tcp.param3 = ${13}	# start time of recoding send rate

**.client*.numApps = 2 
#**.client2*.numApps = 1 
**.client*.app[0].typename = "TcpSessionApp"
**.client*.app[1].typename = "TcpSinkApp"

**.client*.app[1].localPort = 1000

**.client*.app[0].active = true
**.client*.app[0].localPort = -1
**.client*.app[0].sendBytes = 1000MiB
**.client*.app[0].sendScript = ""
**.client*.app[0].tClose = -1s
**.client*.app[0].connectPort = 1000
#**.client*.app[0].tOpen = 10s


**.client101.app[0].tOpen = 20s
**.client199.app[0].tOpen = 20.01s
**.client201.app[0].tOpen = 20.02s
**.client299.app[0].tOpen = 20.03s
**.client301.app[0].tOpen = 20.04s
**.client399.app[0].tOpen = 20.05s
**.client401.app[0].tOpen = 20.06s
**.client499.app[0].tOpen = 20.07s
**.client501.app[0].tOpen = 20.08s
**.client599.app[0].tOpen = 20.09s
**.client601.app[0].tOpen = 20.10s
**.client699.app[0].tOpen = 20.11s


**.client101.app[0].connectAddress = "client401"
**.client199.app[0].connectAddress = "client499"

**.client201.app[0].connectAddress = "client501"
**.client299.app[0].connectAddress = "client599"

**.client301.app[0].connectAddress = "client601"
**.client399.app[0].connectAddress = "client699"

**.client401.app[0].connectAddress = "client101"
**.client499.app[0].connectAddress = "client199"

**.client501.app[0].connectAddress = "client201"
**.client599.app[0].connectAddress = "client299"

**.client601.app[0].connectAddress = "client301"
**.client699.app[0].connectAddress = "client399"
#
#**.client111.app[0].connectAddress = "client211"
#**.client112.app[0].connectAddress = "client212"
#**.client113.app[0].connectAddress = "client213"
#**.client114.app[0].connectAddress = "client214"
#**.client115.app[0].connectAddress = "client215"
#**.client116.app[0].connectAddress = "client216"
#**.client117.app[0].connectAddress = "client217"
#**.client118.app[0].connectAddress = "client218"
#**.client119.app[0].connectAddress = "client219"
#**.client1110.app[0].connectAddress = "client2110"
#**.client1111.app[0].connectAddress = "client2111"
#**.client1112.app[0].connectAddress = "client2112"
#**.client1113.app[0].connectAddress = "client2113"
#**.client1114.app[0].connectAddress = "client2114"
#**.client1115.app[0].connectAddress = "client2115"
#**.client1116.app[0].connectAddress = "client2116"
#**.client1117.app[0].connectAddress = "client2117"
#**.client1118.app[0].connectAddress = "client2118"
#**.client1119.app[0].connectAddress = "client2119"
#**.client1120.app[0].connectAddress = "client2120"
#**.client1121.app[0].connectAddress = "client2121"
#**.client1122.app[0].connectAddress = "client2122"
#**.client1123.app[0].connectAddress = "client2123"
#**.client1124.app[0].connectAddress = "client2124"
#**.client1125.app[0].connectAddress = "client2125"
#**.client1126.app[0].connectAddress = "client2126"
#**.client1127.app[0].connectAddress = "client2127"
#**.client1128.app[0].connectAddress = "client2128"
#**.client1129.app[0].connectAddress = "client2129"



**.client101.app[0].tSend = 22s
**.client199.app[0].tSend = 22.01s
**.client201.app[0].tSend = 22.02s
**.client299.app[0].tSend = 22.03s
**.client301.app[0].tSend = 22.04s
**.client399.app[0].tSend = 22.05s
**.client401.app[0].tSend = 22.06s
**.client499.app[0].tSend = 22.07s
**.client501.app[0].tSend = 22.08s
**.client599.app[0].tSend = 22.09s
**.client601.app[0].tSend = 22.10s
**.client699.app[0].tSend = 22.11s

#**.client101.app[0].tSend = max(((${s = 1..30 step 1} - 30) * 100) * 1s, 0s) + uniform(3.0s, 3.001s) + 10s
#
#**.client199.app[0].tSend = max(((${s} - 30 + 1) * 100) * 1s, 0s) + uniform(3.0s, 3.001s) + 10s
#**.client201.app[0].tSend = max(((${s} - 30 + 1) * 100) * 1s, 0s) + uniform(3.0s, 3.001s) + 10s
#**.client299.app[0].tSend = max(((${s} - 30 + 1) * 100) * 1s, 0s) + uniform(3.0s, 3.001s) + 10s
#**.client301.app[0].tSend = max(((${s} - 30 + 1) * 100) * 1s, 0s) + uniform(3.0s, 3.001s) + 10s
#**.client399.app[0].tSend = max(((${s} - 30 + 1) * 100) * 1s, 0s) + uniform(3.0s, 3.001s) + 10s
#**.client401.app[0].tSend = max(((${s} - 30 + 1) * 100) * 1s, 0s) + uniform(3.0s, 3.001s) + 10s
#**.client499.app[0].tSend = max(((${s} - 30 + 1) * 100) * 1s, 0s) + uniform(3.0s, 3.001s) + 10s
#**.client501.app[0].tSend = max(((${s} - 30 + 1) * 100) * 1s, 0s) + uniform(3.0s, 3.001s) + 10s
#**.client599.app[0].tSend = max(((${s} - 30 + 1) * 100) * 1s, 0s) + uniform(3.0s, 3.001s) + 10s
#**.client601.app[0].tSend = max(((${s} - 30 + 1) * 100) * 1s, 0s) + uniform(3.0s, 3.001s) + 10s
#**.client699.app[0].tSend = max(((${s} - 30 + 1) * 100) * 1s, 0s) + uniform(3.0s, 3.001s) + 10s
##
##**.client111.app[0].tSend = max(((${s} - 30 + 1) * 100) * 1s, 0s) + uniform(3.0s, 3.001s)
##**.client112.app[0].tSend = max(((${s} - 30 + 2) * 100) * 1s, 0s) + uniform(3.0s, 3.001s)
##**.client113.app[0].tSend = max(((${s} - 30 + 3) * 100) * 1s, 0s) + uniform(3.0s, 3.001s)
##**.client114.app[0].tSend = max(((${s} - 30 + 4) * 100) * 1s, 0s) + uniform(3.0s, 3.001s)
##**.client115.app[0].tSend = max(((${s} - 30 + 5) * 100) * 1s, 0s) + uniform(3.0s, 3.001s)
##**.client116.app[0].tSend = max(((${s} - 30 + 6) * 100) * 1s, 0s) + uniform(3.0s, 3.001s)
##**.client117.app[0].tSend = max(((${s} - 30 + 7) * 100) * 1s, 0s) + uniform(3.0s, 3.001s)
##**.client118.app[0].tSend = max(((${s} - 30 + 8) * 100) * 1s, 0s) + uniform(3.0s, 3.001s)
##**.client119.app[0].tSend = max(((${s} - 30 + 9) * 100) * 1s, 0s) + uniform(3.0s, 3.001s)
##**.client1110.app[0].tSend = max(((${s} - 30 + 10) * 100) * 1s, 0s) + uniform(3.0s, 3.001s)
##**.client1111.app[0].tSend = max(((${s} - 30 + 11) * 100) * 1s, 0s) + uniform(3.0s, 3.001s)
##**.client1112.app[0].tSend = max(((${s} - 30 + 12) * 100) * 1s, 0s) + uniform(3.0s, 3.001s)
##**.client1113.app[0].tSend = max(((${s} - 30 + 13) * 100) * 1s, 0s) + uniform(3.0s, 3.001s)
##**.client1114.app[0].tSend = max(((${s} - 30 + 14) * 100) * 1s, 0s) + uniform(3.0s, 3.001s)
##**.client1115.app[0].tSend = max(((${s} - 30 + 15) * 100) * 1s, 0s) + uniform(3.0s, 3.001s)
##**.client1116.app[0].tSend = max(((${s} - 30 + 16) * 100) * 1s, 0s) + uniform(3.0s, 3.001s)
##**.client1117.app[0].tSend = max(((${s} - 30 + 17) * 100) * 1s, 0s) + uniform(3.0s, 3.001s)
##**.client1118.app[0].tSend = max(((${s} - 30 + 18) * 100) * 1s, 0s) + uniform(3.0s, 3.001s)
##**.client1119.app[0].tSend = max(((${s} - 30 + 19) * 100) * 1s, 0s) + uniform(3.0s, 3.001s)
##**.client1120.app[0].tSend = max(((${s} - 30 + 20) * 100) * 1s, 0s) + uniform(3.0s, 3.001s)
##**.client1121.app[0].tSend = max(((${s} - 30 + 21) * 100) * 1s, 0s) + uniform(3.0s, 3.001s)
##**.client1122.app[0].tSend = max(((${s} - 30 + 22) * 100) * 1s, 0s) + uniform(3.0s, 3.001s)
##**.client1123.app[0].tSend = max(((${s} - 30 + 23) * 100) * 1s, 0s) + uniform(3.0s, 3.001s)
##**.client1124.app[0].tSend = max(((${s} - 30 + 24) * 100) * 1s, 0s) + uniform(3.0s, 3.001s)
##**.client1125.app[0].tSend = max(((${s} - 30 + 25) * 100) * 1s, 0s) + uniform(3.0s, 3.001s)
##**.client1126.app[0].tSend = max(((${s} - 30 + 26) * 100) * 1s, 0s) + uniform(3.0s, 3.001s)
##**.client1127.app[0].tSend = max(((${s} - 30 + 27) * 100) * 1s, 0s) + uniform(3.0s, 3.001s)
##**.client1128.app[0].tSend = max(((${s} - 30 + 28) * 100) * 1s, 0s) + uniform(3.0s, 3.001s)
##**.client1129.app[0].tSend = max(((${s} - 30 + 29) * 100) * 1s, 0s) + uniform(3.0s, 3.001s)
#
#seed-set=${0, 1, 2, 3, 4, 5, 6, 7, 8, 9}
#
#
#**.client12.app[0].connectAddress = "client22"
#**.client121.app[0].connectAddress = "client221"
#**.client122.app[0].connectAddress = "client222"
#**.client123.app[0].connectAddress = "client223"
#**.client124.app[0].connectAddress = "client224"
#**.client125.app[0].connectAddress = "client225"
#**.client126.app[0].connectAddress = "client226"
#**.client127.app[0].connectAddress = "client227"
#
#**.client12.app[0].tSend = uniform(3.0s, 3.001s)
#**.client121.app[0].tSend = uniform(3.0s, 3.001s)
#**.client122.app[0].tSend = uniform(3.0s, 3.001s)
#**.client123.app[0].tSend = uniform(3.0s, 3.001s)
#**.client124.app[0].tSend = uniform(3.0s, 3.001s)
#**.client125.app[0].tSend = uniform(3.0s, 3.001s)
#**.client126.app[0].tSend = uniform(3.0s, 3.001s)
#**.client127.app[0].tSend = uniform(3.0s, 3.001s)
#
#
#**.client13.app[0].connectAddress = "client23"
#**.client131.app[0].connectAddress = "client231"
#**.client132.app[0].connectAddress = "client232"
#**.client133.app[0].connectAddress = "client233"
#**.client134.app[0].connectAddress = "client234"
#**.client135.app[0].connectAddress = "client235"
#**.client136.app[0].connectAddress = "client236"
#**.client137.app[0].connectAddress = "client237"
#
#**.client13.app[0].tSend = uniform(3.0s, 3.001s) + 0.001s
#**.client131.app[0].tSend = uniform(3.0s, 3.001s) + 0.001s
#**.client132.app[0].tSend = uniform(3.0s, 3.001s) + 0.001s
#**.client133.app[0].tSend = uniform(3.0s, 3.001s) + 0.001s
#**.client134.app[0].tSend = uniform(3.0s, 3.001s) + 0.001s
#**.client135.app[0].tSend = uniform(3.0s, 3.001s) + 0.001s
#**.client136.app[0].tSend = uniform(3.0s, 3.001s) + 0.001s
#**.client137.app[0].tSend = uniform(3.0s, 3.001s) + 0.001s
#
#**.client14.app[0].connectAddress = "client24"
#**.client141.app[0].connectAddress = "client241"
#**.client142.app[0].connectAddress = "client242"
#**.client143.app[0].connectAddress = "client243"
#**.client144.app[0].connectAddress = "client244"
#**.client145.app[0].connectAddress = "client245"
#**.client146.app[0].connectAddress = "client246"
#**.client147.app[0].connectAddress = "client247"
#
#**.client14.app[0].tSend = uniform(3.0s, 3.001s) + 0.002s
#**.client141.app[0].tSend = uniform(3.0s, 3.001s) + 0.002s
#**.client142.app[0].tSend = uniform(3.0s, 3.001s) + 0.002s
#**.client143.app[0].tSend = uniform(3.0s, 3.001s) + 0.002s
#**.client144.app[0].tSend = uniform(3.0s, 3.001s) + 0.002s
#**.client145.app[0].tSend = uniform(3.0s, 3.001s) + 0.002s
#**.client146.app[0].tSend = uniform(3.0s, 3.001s) + 0.002s
#**.client147.app[0].tSend = uniform(3.0s, 3.001s) + 0.002s
#
#**.client15.app[0].connectAddress = "client25"
#**.client151.app[0].connectAddress = "client251"
#**.client152.app[0].connectAddress = "client252"
#**.client153.app[0].connectAddress = "client253"
#**.client154.app[0].connectAddress = "client254"
#**.client155.app[0].connectAddress = "client255"
#**.client156.app[0].connectAddress = "client256"
#**.client157.app[0].connectAddress = "client257"
#
#**.client15.app[0].tSend = uniform(3.0s, 3.001s) + 0.003s
#**.client151.app[0].tSend = uniform(3.0s, 3.001s) + 0.003s
#**.client152.app[0].tSend = uniform(3.0s, 3.001s) + 0.003s
#**.client153.app[0].tSend = uniform(3.0s, 3.001s) + 0.003s
#**.client154.app[0].tSend = uniform(3.0s, 3.001s) + 0.003s
#**.client155.app[0].tSend = uniform(3.0s, 3.001s) + 0.003s
#**.client156.app[0].tSend = uniform(3.0s, 3.001s) + 0.003s
#**.client157.app[0].tSend = uniform(3.0s, 3.001s) + 0.003s
#
#**.client16.app[0].connectAddress = "client26"
#**.client161.app[0].connectAddress = "client261"
#**.client162.app[0].connectAddress = "client262"
#**.client163.app[0].connectAddress = "client263"
#**.client164.app[0].connectAddress = "client264"
#**.client165.app[0].connectAddress = "client265"
#**.client166.app[0].connectAddress = "client266"
#**.client167.app[0].connectAddress = "client267"
#
#**.client16.app[0].tSend = uniform(3.0s, 3.001s) + 0.004s
#**.client161.app[0].tSend = uniform(3.0s, 3.001s) + 0.004s
#**.client162.app[0].tSend = uniform(3.0s, 3.001s) + 0.004s
#**.client163.app[0].tSend = uniform(3.0s, 3.001s) + 0.004s
#**.client164.app[0].tSend = uniform(3.0s, 3.001s) + 0.004s
#**.client165.app[0].tSend = uniform(3.0s, 3.001s) + 0.004s
#**.client166.app[0].tSend = uniform(3.0s, 3.001s) + 0.004s
#**.client167.app[0].tSend = uniform(3.0s, 3.001s) + 0.004s


#**.client1*.app[0].tSend = 130.0s



**.routerCore*.eth[*].queue.typename       = "RedMarkerQueue"
**.routerCore*.eth[*].queue.red.wq         = 0.5
**.routerCore*.eth[*].queue.red.minths     = "1"
**.routerCore*.eth[*].queue.red.maxths     = "150"
**.routerCore*.eth[*].queue.red.maxps      = "1.0"
**.routerCore*.eth[*].queue.red.pkrates    = "83333.333"
**.routerCore*.eth[*].queue.red.marks 	   = "1"
**.routerCore*.eth[*].queue.red.recStart   = 0
**.routerCore*.eth[*].queueframeCapacity   = 5000


[Config PrimalDual1]
network = ParkingLot
sim-time-limit = 17s

 result-dir = /run/media/peymant/My Passport/Peyman/ECNNUM-results

**.tcp.sackSupport = false
**.tcp.tcpAlgorithmClass = "ECNNUMP2"
**.tcp.mss = 400 #1460

**.client*.tcp.ldatarate = 1Gbps
**.client*.tcp.param1 = 1.2 #1.5
**.client*.tcp.param2 = 10 #10 for 200 mss, 2 for 1460 mss	
**.client*.tcp.param3 = ${12}	# start time of recoding send rate

**.client*.numTcpApps = 1 
**.client1*.app[0].typename = "TCPSessionApp"
**.client2*.app[0].typename = "TCPSinkApp"
**.client2*.app[0].localPort = 1000

**.client1*.app[0].active = true
**.client1*.app[0].localPort = -1
**.client1*.app[0].sendBytes = 10000MiB
**.client1*.app[0].sendScript = ""
**.client1*.app[0].tClose = 0s
**.client1*.app[0].connectPort = 1000
**.client1*.app[0].tOpen = 1s


**.client11.app[0].connectAddress = "client21"
**.client111.app[0].connectAddress = "client211"
**.client112.app[0].connectAddress = "client212"
**.client113.app[0].connectAddress = "client213"
**.client114.app[0].connectAddress = "client214"
**.client115.app[0].connectAddress = "client215"
**.client116.app[0].connectAddress = "client216"
**.client117.app[0].connectAddress = "client217"
**.client118.app[0].connectAddress = "client218"
**.client119.app[0].connectAddress = "client219"
**.client1110.app[0].connectAddress = "client2110"
**.client1111.app[0].connectAddress = "client2111"
**.client1112.app[0].connectAddress = "client2112"
**.client1113.app[0].connectAddress = "client2113"
**.client1114.app[0].connectAddress = "client2114"
**.client1115.app[0].connectAddress = "client2115"
**.client1116.app[0].connectAddress = "client2116"
**.client1117.app[0].connectAddress = "client2117"
**.client1118.app[0].connectAddress = "client2118"
**.client1119.app[0].connectAddress = "client2119"
**.client1120.app[0].connectAddress = "client2120"
**.client1121.app[0].connectAddress = "client2121"
**.client1122.app[0].connectAddress = "client2122"
**.client1123.app[0].connectAddress = "client2123"
**.client1124.app[0].connectAddress = "client2124"
**.client1125.app[0].connectAddress = "client2125"
**.client1126.app[0].connectAddress = "client2126"
**.client1127.app[0].connectAddress = "client2127"
**.client1128.app[0].connectAddress = "client2128"
**.client1129.app[0].connectAddress = "client2129"



**.client11.app[0].tSend = max(((${s = 1..30 step 1} - 30) * 100) * 1s, 0s) + uniform(3.0s, 3.001s)
**.client111.app[0].tSend = max(((${s} - 30 + 1) * 100) * 1s, 0s) + uniform(3.0s, 3.001s)
**.client112.app[0].tSend = max(((${s} - 30 + 2) * 100) * 1s, 0s) + uniform(3.0s, 3.001s)
**.client113.app[0].tSend = max(((${s} - 30 + 3) * 100) * 1s, 0s) + uniform(3.0s, 3.001s)
**.client114.app[0].tSend = max(((${s} - 30 + 4) * 100) * 1s, 0s) + uniform(3.0s, 3.001s)
**.client115.app[0].tSend = max(((${s} - 30 + 5) * 100) * 1s, 0s) + uniform(3.0s, 3.001s)
**.client116.app[0].tSend = max(((${s} - 30 + 6) * 100) * 1s, 0s) + uniform(3.0s, 3.001s)
**.client117.app[0].tSend = max(((${s} - 30 + 7) * 100) * 1s, 0s) + uniform(3.0s, 3.001s)
**.client118.app[0].tSend = max(((${s} - 30 + 8) * 100) * 1s, 0s) + uniform(3.0s, 3.001s)
**.client119.app[0].tSend = max(((${s} - 30 + 9) * 100) * 1s, 0s) + uniform(3.0s, 3.001s)
**.client1110.app[0].tSend = max(((${s} - 30 + 10) * 100) * 1s, 0s) + uniform(3.0s, 3.001s)
**.client1111.app[0].tSend = max(((${s} - 30 + 11) * 100) * 1s, 0s) + uniform(3.0s, 3.001s)
**.client1112.app[0].tSend = max(((${s} - 30 + 12) * 100) * 1s, 0s) + uniform(3.0s, 3.001s)
**.client1113.app[0].tSend = max(((${s} - 30 + 13) * 100) * 1s, 0s) + uniform(3.0s, 3.001s)
**.client1114.app[0].tSend = max(((${s} - 30 + 14) * 100) * 1s, 0s) + uniform(3.0s, 3.001s)
**.client1115.app[0].tSend = max(((${s} - 30 + 15) * 100) * 1s, 0s) + uniform(3.0s, 3.001s)
**.client1116.app[0].tSend = max(((${s} - 30 + 16) * 100) * 1s, 0s) + uniform(3.0s, 3.001s)
**.client1117.app[0].tSend = max(((${s} - 30 + 17) * 100) * 1s, 0s) + uniform(3.0s, 3.001s)
**.client1118.app[0].tSend = max(((${s} - 30 + 18) * 100) * 1s, 0s) + uniform(3.0s, 3.001s)
**.client1119.app[0].tSend = max(((${s} - 30 + 19) * 100) * 1s, 0s) + uniform(3.0s, 3.001s)
**.client1120.app[0].tSend = max(((${s} - 30 + 20) * 100) * 1s, 0s) + uniform(3.0s, 3.001s)
**.client1121.app[0].tSend = max(((${s} - 30 + 21) * 100) * 1s, 0s) + uniform(3.0s, 3.001s)
**.client1122.app[0].tSend = max(((${s} - 30 + 22) * 100) * 1s, 0s) + uniform(3.0s, 3.001s)
**.client1123.app[0].tSend = max(((${s} - 30 + 23) * 100) * 1s, 0s) + uniform(3.0s, 3.001s)
**.client1124.app[0].tSend = max(((${s} - 30 + 24) * 100) * 1s, 0s) + uniform(3.0s, 3.001s)
**.client1125.app[0].tSend = max(((${s} - 30 + 25) * 100) * 1s, 0s) + uniform(3.0s, 3.001s)
**.client1126.app[0].tSend = max(((${s} - 30 + 26) * 100) * 1s, 0s) + uniform(3.0s, 3.001s)
**.client1127.app[0].tSend = max(((${s} - 30 + 27) * 100) * 1s, 0s) + uniform(3.0s, 3.001s)
**.client1128.app[0].tSend = max(((${s} - 30 + 28) * 100) * 1s, 0s) + uniform(3.0s, 3.001s)
**.client1129.app[0].tSend = max(((${s} - 30 + 29) * 100) * 1s, 0s) + uniform(3.0s, 3.001s)

seed-set=${0, 1, 2, 3, 4, 5, 6, 7, 8, 9}


**.client12.app[0].connectAddress = "client22"
**.client121.app[0].connectAddress = "client221"
**.client122.app[0].connectAddress = "client222"
**.client123.app[0].connectAddress = "client223"
**.client124.app[0].connectAddress = "client224"
**.client125.app[0].connectAddress = "client225"
**.client126.app[0].connectAddress = "client226"
**.client127.app[0].connectAddress = "client227"

**.client12.app[0].tSend = uniform(3.0s, 3.001s)
**.client121.app[0].tSend = uniform(3.0s, 3.001s)
**.client122.app[0].tSend = uniform(3.0s, 3.001s)
**.client123.app[0].tSend = uniform(3.0s, 3.001s)
**.client124.app[0].tSend = uniform(3.0s, 3.001s)
**.client125.app[0].tSend = uniform(3.0s, 3.001s)
**.client126.app[0].tSend = uniform(3.0s, 3.001s)
**.client127.app[0].tSend = uniform(3.0s, 3.001s)


**.client13.app[0].connectAddress = "client23"
**.client131.app[0].connectAddress = "client231"
**.client132.app[0].connectAddress = "client232"
**.client133.app[0].connectAddress = "client233"
**.client134.app[0].connectAddress = "client234"
**.client135.app[0].connectAddress = "client235"
**.client136.app[0].connectAddress = "client236"
**.client137.app[0].connectAddress = "client237"

**.client13.app[0].tSend = uniform(3.0s, 3.001s) + 0.001s
**.client131.app[0].tSend = uniform(3.0s, 3.001s) + 0.001s
**.client132.app[0].tSend = uniform(3.0s, 3.001s) + 0.001s
**.client133.app[0].tSend = uniform(3.0s, 3.001s) + 0.001s
**.client134.app[0].tSend = uniform(3.0s, 3.001s) + 0.001s
**.client135.app[0].tSend = uniform(3.0s, 3.001s) + 0.001s
**.client136.app[0].tSend = uniform(3.0s, 3.001s) + 0.001s
**.client137.app[0].tSend = uniform(3.0s, 3.001s) + 0.001s

**.client14.app[0].connectAddress = "client24"
**.client141.app[0].connectAddress = "client241"
**.client142.app[0].connectAddress = "client242"
**.client143.app[0].connectAddress = "client243"
**.client144.app[0].connectAddress = "client244"
**.client145.app[0].connectAddress = "client245"
**.client146.app[0].connectAddress = "client246"
**.client147.app[0].connectAddress = "client247"

**.client14.app[0].tSend = uniform(3.0s, 3.001s) + 0.002s
**.client141.app[0].tSend = uniform(3.0s, 3.001s) + 0.002s
**.client142.app[0].tSend = uniform(3.0s, 3.001s) + 0.002s
**.client143.app[0].tSend = uniform(3.0s, 3.001s) + 0.002s
**.client144.app[0].tSend = uniform(3.0s, 3.001s) + 0.002s
**.client145.app[0].tSend = uniform(3.0s, 3.001s) + 0.002s
**.client146.app[0].tSend = uniform(3.0s, 3.001s) + 0.002s
**.client147.app[0].tSend = uniform(3.0s, 3.001s) + 0.002s

**.client15.app[0].connectAddress = "client25"
**.client151.app[0].connectAddress = "client251"
**.client152.app[0].connectAddress = "client252"
**.client153.app[0].connectAddress = "client253"
**.client154.app[0].connectAddress = "client254"
**.client155.app[0].connectAddress = "client255"
**.client156.app[0].connectAddress = "client256"
**.client157.app[0].connectAddress = "client257"

**.client15.app[0].tSend = uniform(3.0s, 3.001s) + 0.003s
**.client151.app[0].tSend = uniform(3.0s, 3.001s) + 0.003s
**.client152.app[0].tSend = uniform(3.0s, 3.001s) + 0.003s
**.client153.app[0].tSend = uniform(3.0s, 3.001s) + 0.003s
**.client154.app[0].tSend = uniform(3.0s, 3.001s) + 0.003s
**.client155.app[0].tSend = uniform(3.0s, 3.001s) + 0.003s
**.client156.app[0].tSend = uniform(3.0s, 3.001s) + 0.003s
**.client157.app[0].tSend = uniform(3.0s, 3.001s) + 0.003s

**.client16.app[0].connectAddress = "client26"
**.client161.app[0].connectAddress = "client261"
**.client162.app[0].connectAddress = "client262"
**.client163.app[0].connectAddress = "client263"
**.client164.app[0].connectAddress = "client264"
**.client165.app[0].connectAddress = "client265"
**.client166.app[0].connectAddress = "client266"
**.client167.app[0].connectAddress = "client267"
